Version 4
SHEET 1 880 680
WIRE 160 16 -48 16
WIRE 304 16 304 -16
WIRE 304 16 160 16
WIRE 384 16 384 -16
WIRE 528 16 384 16
WIRE -48 32 -48 16
WIRE 304 64 304 16
WIRE 384 64 384 16
WIRE 384 64 368 64
WIRE 160 112 160 16
WIRE 528 112 528 16
WIRE -48 160 -48 112
WIRE 160 208 160 176
WIRE 528 208 528 176
WIRE 160 336 160 288
WIRE 528 336 528 288
FLAG 160 336 0
FLAG 528 336 0
FLAG -48 160 0
SYMBOL cap 144 112 R0
WINDOW 0 -41 29 Left 2
WINDOW 3 43 32 Left 2
SYMATTR InstName C1
SYMATTR Value 27p
SYMBOL ind 144 192 R0
WINDOW 0 -38 58 Left 2
WINDOW 3 44 58 Left 2
SYMATTR InstName L1
SYMATTR Value 510n
SYMBOL ind 512 192 R0
WINDOW 0 -41 59 Left 2
WINDOW 3 46 55 Left 2
SYMATTR InstName L2
SYMATTR Value 510n
SYMBOL cap 512 112 R0
WINDOW 0 -43 30 Left 2
WINDOW 3 42 29 Left 2
SYMATTR InstName C2
SYMATTR Value 27p
SYMBOL cap 368 48 R90
WINDOW 0 47 57 VBottom 2
WINDOW 3 19 -5 VTop 2
SYMATTR InstName C3
SYMATTR Value 180p
SYMBOL ind 288 0 R270
WINDOW 0 34 26 VTop 2
WINDOW 3 64 91 VBottom 2
SYMATTR InstName L3
SYMATTR Value 75n
SYMBOL Misc\\battery -48 16 R0
WINDOW 0 16 -18 Left 2
WINDOW 123 -115 54 Left 2
WINDOW 39 0 0 Left 0
SYMATTR InstName V1
SYMATTR Value ""
SYMATTR Value2 AC 1 0
TEXT 320 432 Left 2 !.ac lin 200 20Meg 60Meg
