* C:\Users\sacmitch\Desktop\Image Reject Filter v4\Filter v4 - v3 tolerance tests w fixed inductors.asc
C1 N001 N003 26.65p
L1 N003 0 510n
L2 N004 0 510n
C2 N002 N004 26.65p
C3 N002 N001 171p
L3 N001 N002 75n
V1 N001 0 AC 1 0
R1 N002 0 50
.ac lin 200 20Meg 60Meg
.backanno
.end
